OPT_V10/Two_days_MCY3_MIQCPM1/powerflow_results_t22.txt
Pandapower Network Debug Info
==================================================

BUS:
       vm_pu  va_degree      p_mw    q_mvar
0   0.992680   0.130318  0.000966  0.000960
1   0.987882   0.236933  0.001348  0.002369
2   0.983477   0.331198  0.002121  0.003421
3   0.988903   0.188973  0.002748  0.003648
4   0.999888   0.001201  0.008126  0.010039
5   0.999875   0.001300  0.010790  0.009565
6   0.999865   0.001407  0.010806  0.012243
7   0.999931   0.000817  0.000000  0.000000
8   0.999931   0.000823  0.000000  0.000000
9   1.000000   0.000000 -0.037065 -0.047352
10  1.000000   0.000006  0.000000  0.000000
--------------------------------------------------

LINE:
   p_from_mw  q_from_mvar   p_to_mw  q_to_mvar         pl_mw       ql_mvar  i_from_ka   i_to_ka      i_ka  vm_from_pu  va_from_degree  vm_to_pu  va_to_degree  loading_percent
0   0.037055     0.043352 -0.037052  -0.043350  3.181369e-06  2.480566e-06   0.002195  0.002195  0.002195    1.000000        0.000006  0.999931      0.000817         0.954395
1   0.029724     0.031848 -0.029722  -0.031847  1.467733e-06  1.144416e-06   0.001677  0.001677  0.001677    0.999931        0.000817  0.999888      0.001201         0.729079
2   0.007318     0.010502 -0.007241  -0.010442  7.664543e-05  5.976170e-05   0.018477  0.018477  0.018477    0.999931        0.000823  0.992680      0.130318         8.033438
3  -0.021596    -0.021807  0.021596   0.021808  3.258294e-07  2.540546e-07   0.001181  0.001181  0.001181    0.999875        0.001300  0.999888      0.001201         0.513676
4  -0.010806    -0.012243  0.010806   0.012243  1.304414e-07  1.017073e-07   0.000629  0.000629  0.000629    0.999865        0.001407  0.999875      0.001300         0.273303
5  -0.003484    -0.005801  0.003512   0.005823  2.776185e-05  2.164637e-05   0.009887  0.009887  0.009887    0.987882        0.236933  0.992680      0.130318         4.298852
6  -0.002748    -0.003648  0.002763   0.003659  1.424370e-05  1.110605e-05   0.006667  0.006667  0.006667    0.988903        0.188973  0.992680      0.130318         2.898527
7  -0.002121    -0.003421  0.002136   0.003432  1.515003e-05  1.181273e-05   0.005907  0.005907  0.005907    0.983477        0.331198  0.987882      0.236933         2.568216
--------------------------------------------------

TRAFO:
    p_hv_mw  q_hv_mvar   p_lv_mw  q_lv_mvar    pl_mw  ql_mvar   i_hv_ka   i_lv_ka  vm_hv_pu  va_hv_degree  vm_lv_pu  va_lv_degree  loading_percent
0  0.007328   0.011502 -0.007318  -0.010502  0.00001    0.001  0.000525  0.018477  0.999931      0.000817  0.999931      0.000823         0.136389
1  0.037065   0.047352 -0.037055  -0.043352  0.00001    0.004  0.000496  0.002195  1.000000      0.000000  1.000000      0.000006         0.150334
--------------------------------------------------
